Circuit: * Z:\home\smi\j\dev\bob\lcr.asc

.OP point found by inspection.

Date: Fri Jan 15 12:56:11 2016
Total elapsed time: 0.033 seconds.

tnom = 27
temp = 27
method = modified trap
totiter = 4850
traniter = 4850
tranpoints = 2426
accept = 2307
rejected = 119
matrix size = 3
fillins = 0
solver = Normal
Matrix Compiler1: 86 bytes object code size  0.2/0.2/[0.2]
Matrix Compiler2: 163 bytes object code size  0.2/0.2/[0.1]


